Version 4
SHEET 1 880 5912
WIRE -17008 4960 -17008 4880
WIRE -17008 5104 -17008 5040
WIRE -16992 5104 -17008 5104
WIRE -16880 5104 -16912 5104
WIRE -16768 5104 -16800 5104
WIRE -17168 5200 -17216 5200
WIRE -17152 5200 -17168 5200
WIRE -16976 5200 -17072 5200
WIRE -17008 5232 -17008 5104
WIRE -16976 5232 -16976 5200
WIRE -17168 5312 -17168 5200
WIRE -17152 5312 -17168 5312
WIRE -16944 5376 -16944 5296
WIRE -16896 5376 -16944 5376
WIRE -16768 5376 -16768 5104
WIRE -16768 5376 -16816 5376
WIRE -17168 5424 -17168 5312
WIRE -17168 5424 -17360 5424
WIRE -17152 5424 -17168 5424
WIRE -17072 5424 -17072 5312
WIRE -16976 5424 -16976 5296
WIRE -16976 5424 -17072 5424
WIRE -17008 5552 -17008 5296
WIRE -17008 5648 -17008 5632
WIRE -16928 5648 -17008 5648
WIRE -16848 5648 -16928 5648
WIRE -17008 5664 -17008 5648
WIRE -16928 5744 -16928 5648
WIRE -16896 5744 -16928 5744
WIRE -17184 5792 -17184 5744
WIRE -17008 5792 -17008 5744
WIRE -17008 5792 -17184 5792
WIRE -16848 5792 -16848 5648
WIRE -16784 5792 -16784 5744
WIRE -16784 5792 -16848 5792
WIRE -16896 5824 -16896 5744
WIRE -16896 5824 -16912 5824
FLAG -17360 5424 AV1
IOPIN -17360 5424 In
FLAG -17008 4880 AV2
IOPIN -17008 4880 In
SYMBOL res -17056 5184 R90
WINDOW 0 0 61 VBottom 2
WINDOW 3 32 56 VTop 2
SYMATTR InstName R1
SYMBOL res -17056 5408 R90
WINDOW 0 0 56 VBottom 2
WINDOW 3 32 56 VTop 2
SYMATTR InstName R6
SYMBOL res -17056 5296 R90
WINDOW 0 0 56 VBottom 2
WINDOW 3 32 56 VTop 2
SYMATTR InstName R7
SYMBOL res -16992 5056 R180
WINDOW 0 36 76 Left 2
WINDOW 3 36 40 Left 2
SYMATTR InstName R2
SYMBOL AutoGenerated\\MAT02 -16976 5264 R270
WINDOW 0 14 98 VTop 2
WINDOW 3 14 98 VBottom 2
SYMATTR InstName IC2
SYMBOL cap -17216 5184 R90
WINDOW 0 0 32 VBottom 2
WINDOW 3 32 32 VTop 2
SYMATTR InstName C9
SYMBOL res -17024 5536 R0
SYMATTR InstName R16
SYMBOL res -16912 5392 R270
WINDOW 0 32 56 VTop 2
WINDOW 3 0 56 VBottom 2
SYMATTR InstName R33
SYMBOL res -17008 5120 R270
WINDOW 0 32 56 VTop 2
WINDOW 3 0 56 VBottom 2
SYMATTR InstName R34
SYMBOL res -16784 5088 R90
WINDOW 0 0 56 VBottom 2
WINDOW 3 32 56 VTop 2
SYMATTR InstName R31
SYMBOL res -17024 5648 R0
WINDOW 3 39 75 Left 2
SYMATTR InstName R18
SYMBOL res -16800 5648 R0
SYMATTR InstName R14
SYMBOL res -17200 5648 R0
SYMATTR InstName R19
SYMBOL AutoGenerated\\TIP121 -16944 5840 R0
SYMATTR InstName TR4
